6
First Frame
     O    -3.0820000000   -8.8320000000    8.9550000000
     H    -3.2610000000   -9.5510000000    8.3170000000
     H    -3.3180000000   -8.0020000000    8.5110000000
     O    -3.5250000000   -4.8920000000   10.2870000000
     H    -4.2630000000   -4.6700000000   10.8320000000
     H    -3.9440000000   -5.4650000000    9.5880000000
6
Second Frame RMSD 0.556
     O    -3.4451672221   -9.4486752686    9.9414348555
     H    -3.2167203858  -10.0167532918    9.1605480744
     H    -3.8975116757   -8.6651682583    9.5214834340
     O    -2.9331696289   -5.4862904181    9.8339757624
     H    -2.4013877354   -5.8590362089   10.5930512859
     H    -3.4708972163   -6.2421761014    9.4711905387
